@<TRIPOS>MOLECULE
*****
 37 39 0 0 0
SMALL
GASTEIGER

@<TRIPOS>ATOM
      1 O         -24.4040   68.4340   34.1680 O.2     1  UNL1       -0.4544
      2 O         -26.7500   68.9060   31.0140 O.2     1  UNL1       -0.2869
      3 C         -26.3270   67.7120   32.9450 C.ar    1  UNL1        0.1091
      4 C         -25.4500   67.6220   34.0540 C.ar    1  UNL1        0.1465
      5 C         -27.4240   66.7890   32.8660 C.ar    1  UNL1        0.1768
      6 C         -24.1340   69.4040   33.3030 C.ar    1  UNL1        0.1392
      7 C         -26.0540   68.7340   31.9960 C.ar    1  UNL1        0.1967
      8 C         -25.6810   66.7020   35.0720 C.ar    1  UNL1        0.0270
      9 C         -27.6320   65.8620   33.9140 C.ar    1  UNL1        0.2043
     10 C         -26.7750   65.8430   35.0390 C.ar    1  UNL1        0.1687
     11 C         -24.9670   69.5880   32.1930 C.ar    1  UNL1        0.0288
     12 C         -22.9520   70.2680   33.5570 C.ar    1  UNL1        0.0176
     13 C         -21.6530   69.8860   33.1650 C.ar    1  UNL1       -0.0476
     14 C         -20.5660   70.7330   33.4010 C.ar    1  UNL1       -0.0195
     15 C         -20.7530   71.9570   34.0490 C.ar    1  UNL1        0.1169
     16 C         -22.0390   72.3410   34.4500 C.ar    1  UNL1       -0.0195
     17 C         -23.1320   71.5090   34.1940 C.ar    1  UNL1       -0.0476
     18 O         -19.6930   72.7580   34.2820 O.3     1  UNL1       -0.5068
     19 H         -19.4450   73.0250   35.1780 H       1  UNL1        0.2921
     20 O         -28.3020   66.7620   31.8360 O.3     1  UNL1       -0.5027
     21 H         -28.2870   67.3150   31.0500 H       1  UNL1        0.2923
     22 O         -26.9590   65.0340   36.1210 O.3     1  UNL1       -0.4912
     23 C         -26.2530   65.0560   37.3080 C.3     1  UNL1        0.0790
     24 O         -28.6640   64.9910   33.8290 O.3     1  UNL1       -0.4885
     25 C         -29.8850   65.2580   34.4140 C.3     1  UNL1        0.0791
     26 H         -25.0026   66.6541   35.8981 H       1  UNL1        0.0692
     27 H         -24.7717   70.3789   31.4992 H       1  UNL1        0.0693
     28 H         -21.4980   68.9427   32.6842 H       1  UNL1        0.0626
     29 H         -19.5862   70.4427   33.0839 H       1  UNL1        0.0654
     30 H         -22.1847   73.2738   34.9536 H       1  UNL1        0.0654
     31 H         -24.1141   71.8185   34.4850 H       1  UNL1        0.0626
     32 H         -26.6317   64.2988   37.9623 H       1  UNL1        0.0660
     33 H         -25.2176   64.8716   37.1107 H       1  UNL1        0.0660
     34 H         -26.3627   66.0146   37.7705 H       1  UNL1        0.0660
     35 H         -30.5551   64.4448   34.2280 H       1  UNL1        0.0660
     36 H         -29.7560   65.3796   35.4692 H       1  UNL1        0.0660
     37 H         -30.2907   66.1567   33.9984 H       1  UNL1        0.0660
@<TRIPOS>BOND
     1     2     7    2
     2    20    21    1
     3     5    20    1
     4     7    11   ar
     5     3     7   ar
     6     6    11   ar
     7     3     5   ar
     8     5     9   ar
     9     3     4   ar
    10    13    14   ar
    11    12    13   ar
    12     6    12    1
    13     1     6   ar
    14    14    15   ar
    15    12    17   ar
    16     9    24    1
    17    24    25    1
    18     9    10   ar
    19    15    18    1
    20    15    16   ar
    21     1     4   ar
    22     4     8   ar
    23    16    17   ar
    24    18    19    1
    25     8    10   ar
    26    10    22    1
    27    22    23    1
    28     8    26    1
    29    11    27    1
    30    13    28    1
    31    14    29    1
    32    16    30    1
    33    17    31    1
    34    23    32    1
    35    23    33    1
    36    23    34    1
    37    25    35    1
    38    25    36    1
    39    25    37    1
