@<TRIPOS>MOLECULE
*****
 52 55 0 0 0
SMALL
GASTEIGER

@<TRIPOS>ATOM
      1 C         -26.3270   67.7120   32.9450 C.2     1  UNL1        0.0837
      2 C         -25.4500   67.6220   34.0540 C.3     1  UNL1        0.1136
      3 C         -27.4240   66.7890   32.8660 C.3     1  UNL1        0.1327
      4 C         -24.1340   69.4040   33.3030 C.3     1  UNL1        0.0668
      5 C         -26.0540   68.7340   31.9960 C.3     1  UNL1        0.1077
      6 C         -25.6810   66.7020   35.0720 C.3     1  UNL1        0.0163
      7 C         -27.6320   65.8620   33.9140 C.3     1  UNL1        0.1166
      8 C         -26.7750   65.8430   35.0390 C.3     1  UNL1        0.0909
      9 C         -24.9670   69.5880   32.1930 C.3     1  UNL1        0.0136
     10 C         -22.9520   70.2680   33.5570 C.3     1  UNL1       -0.0071
     11 C         -21.6530   69.8860   33.1650 C.3     1  UNL1       -0.0446
     12 C         -20.5660   70.7330   33.4010 C.3     1  UNL1       -0.0265
     13 C         -20.7530   71.9570   34.0490 C.3     1  UNL1        0.0553
     14 C         -22.0390   72.3410   34.4500 C.3     1  UNL1       -0.0265
     15 C         -23.1320   71.5090   34.1940 C.3     1  UNL1       -0.0446
     16 C         -26.2530   65.0560   37.3080 C.3     1  UNL1        0.0369
     17 C         -29.8850   65.2580   34.4140 C.3     1  UNL1        0.0370
     18 O         -24.4040   68.4340   34.1680 O.2     1  UNL1       -0.6166
     19 O         -26.7500   68.9060   31.0140 O.3     1  UNL1       -0.3847
     20 O         -19.6930   72.7580   34.2820 O.3     1  UNL1       -0.3918
     21 O         -28.3020   66.7620   31.8360 O.3     1  UNL1       -0.3821
     22 O         -26.9590   65.0340   36.1210 O.3     1  UNL1       -0.3770
     23 O         -28.6640   64.9910   33.8290 O.3     1  UNL1       -0.3742
     24 H         -19.4450   73.0250   35.1780 H       1  UNL1        0.2098
     25 H         -28.2870   67.3150   31.0500 H       1  UNL1        0.2105
     26 H         -25.5065   67.2390   33.0565 H       1  UNL1        0.0774
     27 H         -26.8333   67.3953   32.2115 H       1  UNL1        0.0695
     28 H         -24.0420   69.9539   32.3898 H       1  UNL1        0.0700
     29 H         -26.4605   67.7449   31.9608 H       1  UNL1        0.0669
     30 H         -24.8108   66.0813   35.1216 H       1  UNL1        0.0330
     31 H         -25.9080   67.3328   35.9060 H       1  UNL1        0.0330
     32 H         -26.8259   66.0111   34.6016 H       1  UNL1        0.0652
     33 H         -27.5486   65.2045   34.6665 H       1  UNL1        0.0624
     34 H         -25.3604   70.5807   32.2612 H       1  UNL1        0.0329
     35 H         -24.3273   69.3736   31.3625 H       1  UNL1        0.0329
     36 H         -22.8855   69.2089   33.4198 H       1  UNL1        0.0335
     37 H         -21.4393   68.9650   33.6660 H       1  UNL1        0.0270
     38 H         -21.7180   69.8672   32.0971 H       1  UNL1        0.0270
     39 H         -19.8656   70.1777   33.9892 H       1  UNL1        0.0290
     40 H         -20.2665   71.0235   32.4157 H       1  UNL1        0.0290
     41 H         -20.9319   72.8645   34.5868 H       1  UNL1        0.0593
     42 H         -22.0016   72.4833   35.5098 H       1  UNL1        0.0290
     43 H         -22.2380   73.1993   33.8429 H       1  UNL1        0.0290
     44 H         -23.8086   72.0709   33.5845 H       1  UNL1        0.0270
     45 H         -23.4568   71.2306   35.1748 H       1  UNL1        0.0270
     46 H         -26.6317   64.2988   37.9623 H       1  UNL1        0.0524
     47 H         -25.2176   64.8716   37.1107 H       1  UNL1        0.0524
     48 H         -26.3627   66.0146   37.7705 H       1  UNL1        0.0524
     49 H         -30.5551   64.4448   34.2280 H       1  UNL1        0.0524
     50 H         -29.7560   65.3796   35.4692 H       1  UNL1        0.0524
     51 H         -30.2907   66.1567   33.9984 H       1  UNL1        0.0524
     52 H         -26.6472   69.7986   30.7054 H       1  UNL1        0.2103
@<TRIPOS>BOND
     1     1     3    1
     2     1     5    1
     3     1     2    1
     4     2     6    1
     5     2    18    1
     6     3    21    1
     7     3     7    1
     8     4    18    1
     9     4     9    1
    10     4    10    1
    11     5    19    1
    12     5     9    1
    13     6     8    1
    14     7    23    1
    15     7     8    1
    16     8    22    1
    17    10    15    1
    18    10    11    1
    19    11    12    1
    20    12    13    1
    21    13    14    1
    22    13    20    1
    23    14    15    1
    24    16    22    1
    25    17    23    1
    26    20    24    1
    27    21    25    1
    28     1    18    2
    29     2    26    1
    30     3    27    1
    31     4    28    1
    32     5    29    1
    33     6    30    1
    34     6    31    1
    35     7    32    1
    36     8    33    1
    37     9    34    1
    38     9    35    1
    39    10    36    1
    40    11    37    1
    41    11    38    1
    42    12    39    1
    43    12    40    1
    44    13    41    1
    45    14    42    1
    46    14    43    1
    47    15    44    1
    48    15    45    1
    49    16    46    1
    50    16    47    1
    51    16    48    1
    52    17    49    1
    53    17    50    1
    54    17    51    1
    55    19    52    1
